   96

O       0.149763    3.930869    6.077860
H      -0.695845    3.446796    6.021202
H       0.617447    3.593996    5.260965
O       1.471256    6.948964    6.227149
H       1.631954    6.065514    6.627246
H       1.165904    7.530138    7.006488
O       6.413742    0.160629    7.408398
H       7.282360    0.061545    7.890804
H       6.054614    1.042976    7.694801
O       6.403708    8.680290    0.961849
H       5.712629    9.083231    0.396726
H       6.695224    9.399029    1.749133
O       5.419394    6.887829    2.937558
H       5.599774    7.591746    2.256959
H       4.835327    7.238750    3.676408
O      -0.669494    3.438110    3.282414
H      -1.318195    4.190816    3.172858
H      -0.929215    2.764287    2.609511
O       0.296392    6.746760    3.791465
H       0.512939    6.750263    4.766589
H      -0.618866    6.359214    3.620243
O       5.404194    2.493809    8.403741
H       5.330319    2.421052    9.394023
H       5.632883    3.440517    8.231423
O       3.926457    7.071938    5.088028
H       3.967801    6.062974    5.152111
H       2.968814    7.261339    5.293305
O       9.365027    5.752790    8.546292
H       9.244110    5.400072    7.639740
H       9.884582    4.987016    9.137508
O       4.605422    0.503719    3.733005
H       4.261435    0.800491    4.609874
H       4.599239    1.267152    3.096610
O       5.370278    2.293502    1.487038
H       6.290106    2.139941    1.800776
H       5.056578    3.196822    1.800751
O       7.105582    0.327485    2.771319
H       6.408121    0.274490    3.474125
H       8.041088   -0.087095    3.049434
O       5.742718    5.409037    8.357327
H       5.596743    6.273103    7.872044
H       6.360538    5.662784    9.122740
O       1.605504    4.784177    2.609190
H       0.877393    4.153350    2.910733
H       1.274512    5.664924    2.981668
O       7.404368    6.264578    0.325677
H       8.171591    6.181025   -0.336652
H       7.125754    7.222572    0.440942
O       3.299683    1.161051    6.401752
H       3.585446    1.813281    7.092305
H       3.144080    0.318908    6.872376
O       0.683375    8.063793    8.500630
H       1.579406    8.049579    8.976100
H       0.256850    7.147617    8.619789
O       3.125908    7.820655    9.508070
H       3.764592    7.996767    8.748264
H       3.174538    6.798277    9.579083
O       3.437819    5.237390   -0.363028
H       3.660727    4.923805    0.568732
H       4.355965    5.285056   -0.817101
O       7.860039    5.743942    2.906928
H       7.806468    5.857325    1.902724
H       6.984010    6.130735    3.192519
O       4.173745    4.602393    2.131839
H       4.619224    5.454582    2.422092
H       3.223471    4.618172    2.479301
O       2.808586    8.881732    2.138133
H       3.595858    9.130288    2.676552
H       3.086991    8.499102    1.260344
O       0.666998    4.081022    0.030030
H       1.052436    4.429106    0.880370
H       0.117742    3.245759    0.262682
O       9.241606    1.974567    0.817105
H       8.905291    1.272816    0.189375
H      10.039716    1.560994    1.288508
O       2.585519    3.796657    7.406294
H       1.616493    3.684322    7.215445
H       2.703249    4.208258    8.321442
O       9.353902    9.239437    3.123511
H      10.086763    9.879354    2.904242
H       9.734182    8.341712    3.324544
O       1.324915    1.113345    2.306300
H       1.650899    1.706122    3.041195
H       2.003762    0.365803    2.141067
O       1.991962    2.622667    4.453844
H       2.281709    2.013008    5.188350
H       2.695587    3.326778    4.447089
O       4.924733    7.911100    7.434688
H       5.534555    8.740215    7.383756
H       4.598528    7.691428    6.510746
O       8.534802    9.694736    9.070726
H       9.349412    9.127440    8.857448
H       8.001815    9.198378    9.739941
O       3.931447    4.423922    5.296470
H       4.822400    4.025122    5.290636
H       3.492327    4.205150    6.207588
